@<TRIPOS>MOLECULE
*****
 24 26 0 0 0
SMALL
GASTEIGER

@<TRIPOS>ATOM
      1 H           0.2906   -5.5159   17.4507 H     401  ZMA401401    0.1048
      2 C          -0.4146   -5.2684   16.6694 C.ar  401  ZMA401401    0.1205
      3 N           0.0391   -4.7787   15.4759 N.ar  401  ZMA401401   -0.2159
      4 N          -1.7580   -5.4469   16.8836 N.ar  401  ZMA401401   -0.2188
      5 C          -2.6797   -5.1426   15.9214 C.ar  401  ZMA401401    0.1472
      6 N          -4.0603   -5.3336   16.1599 N.pl3 401  ZMA401401   -0.3413
      7 C          -2.2062   -4.6423   14.7138 C.ar  401  ZMA401401    0.1494
      8 N          -2.8816   -4.2610   13.6168 N.ar  401  ZMA401401   -0.2042
      9 C          -0.8764   -4.4760   14.5227 C.ar  401  ZMA401401    0.1667
     10 N          -0.6502   -3.9840   13.2947 N.ar  401  ZMA401401   -0.2949
     11 C          -1.9046   -3.8573   12.7593 C.ar  401  ZMA401401    0.2519
     12 N          -2.2212   -3.3495   11.4518 N.ar  401  ZMA401401   -0.1137
     13 N          -1.3469   -2.9145   10.5588 N.ar  401  ZMA401401   -0.1527
     14 C          -2.0575   -2.5163    9.4892 C.ar  401  ZMA401401    0.0698
     15 C          -3.3882   -2.7266    9.7707 C.ar  401  ZMA401401    0.0698
     16 N          -3.4654   -3.2491   11.0071 N.ar  401  ZMA401401   -0.1527
     17 C           0.6780   -3.6853   12.7555 C.3     1  UNL11       0.0166
     18 H          -4.7579   -5.1083   15.4358 H       1  UNL11       0.1438
     19 H          -4.3827   -5.7051   17.0650 H       1  UNL11       0.1438
     20 H          -1.6371   -2.1049    8.5816 H       1  UNL11       0.0864
     21 H          -4.2343   -2.5155    9.1309 H       1  UNL11       0.0864
     22 H           0.6527   -3.2943   11.7273 H       1  UNL11       0.0457
     23 H           1.2903   -4.6117   12.7498 H       1  UNL11       0.0457
     24 H           1.1767   -2.9294   13.3977 H       1  UNL11       0.0457
@<TRIPOS>BOND
     1    14    15   ar
     2    14    13   ar
     3    15    16   ar
     4    13    12   ar
     5    16    12   ar
     6    12    11    1
     7    11    10   ar
     8    11     8   ar
     9    10     9   ar
    10     8     7   ar
    11     9     7   ar
    12     9     3   ar
    13     7     5   ar
    14     3     2   ar
    15     5     6    1
    16     5     4   ar
    17     2     4   ar
    18     2     1    1
    19    10    17    1
    20     6    18    1
    21     6    19    1
    22    14    20    1
    23    15    21    1
    24    17    22    1
    25    17    23    1
    26    17    24    1
