@<TRIPOS>MOLECULE
*****
 27 29 0 0 0
SMALL
GASTEIGER

@<TRIPOS>ATOM
      1 C           0.5345   -5.5786   17.7540 C.3   401  ZMA401     -0.0045
      2 C          -0.4315   -5.2558   16.6637 C.ar  401  ZMA401      0.1305
      3 N           0.0228   -4.7734   15.4660 N.ar  401  ZMA401     -0.2128
      4 N          -1.7765   -5.4364   16.8723 N.ar  401  ZMA401     -0.2157
      5 C          -2.6959   -5.1407   15.9055 C.ar  401  ZMA401      0.1475
      6 N          -4.0767   -5.3326   16.1420 N.pl3 401  ZMA401     -0.3413
      7 C          -2.2202   -4.6448   14.6972 C.ar  401  ZMA401      0.1495
      8 N          -2.8933   -4.2660   13.5978 N.ar  401  ZMA401     -0.2042
      9 C          -0.8904   -4.4779   14.5088 C.ar  401  ZMA401      0.1670
     10 N          -0.6613   -3.9890   13.2805 N.ar  401  ZMA401     -0.2949
     11 C          -1.9143   -3.8624   12.7422 C.ar  401  ZMA401      0.2519
     12 N          -2.2285   -3.3499   11.4360 N.ar  401  ZMA401     -0.1137
     13 N          -1.3520   -2.9098   10.5472 N.ar  401  ZMA401     -0.1527
     14 C          -2.0606   -2.5034    9.4794 C.ar  401  ZMA401      0.0698
     15 C          -3.3921   -2.7137    9.7576 C.ar  401  ZMA401      0.0698
     16 N          -3.4716   -3.2445   10.9903 N.ar  401  ZMA401     -0.1527
     17 C           0.6684   -3.6906   12.7449 C.3     1  UNL1        0.0166
     18 H           0.4455   -6.6505   18.0271 H       1  UNL1        0.0308
     19 H           0.3097   -4.9541   18.6440 H       1  UNL1        0.0308
     20 H          -4.7734   -5.1120   15.4156 H       1  UNL1        0.1438
     21 H          -4.4001   -5.7001   17.0484 H       1  UNL1        0.1438
     22 H          -1.6384   -2.0860    8.5754 H       1  UNL1        0.0864
     23 H          -4.2370   -2.4965    9.1183 H       1  UNL1        0.0864
     24 H           0.6463   -3.3013   11.7160 H       1  UNL1        0.0457
     25 H           1.2806   -4.6172   12.7421 H       1  UNL1        0.0457
     26 H           1.1655   -2.9345   13.3881 H       1  UNL1        0.0457
     27 H           1.5764   -5.3746   17.4278 H       1  UNL1        0.0308
@<TRIPOS>BOND
     1    14    15   ar
     2    14    13   ar
     3    15    16   ar
     4    13    12   ar
     5    16    12   ar
     6    12    11    1
     7    11    10   ar
     8    11     8   ar
     9    10     9   ar
    10     8     7   ar
    11     9     7   ar
    12     9     3   ar
    13     7     5   ar
    14     3     2   ar
    15     5     6    1
    16     5     4   ar
    17     2     4   ar
    18     2     1    1
    19    10    17    1
    20     1    18    1
    21     1    19    1
    22     6    20    1
    23     6    21    1
    24    14    22    1
    25    15    23    1
    26    17    24    1
    27    17    25    1
    28    17    26    1
    29     1    27    1
