@<TRIPOS>MOLECULE
*****
 36 38 0 0 0
SMALL
GASTEIGER

@<TRIPOS>ATOM
      1 C           3.3983   -7.7704   16.2483 C.3   401  ZMA401     -0.0653
      2 C           1.9932   -7.4333   16.7450 C.3   401  ZMA401     -0.0555
      3 C           1.9475   -6.0040   17.2944 C.3   401  ZMA401     -0.0464
      4 C           0.5418   -5.5737   17.7435 C.3   401  ZMA401      0.0074
      5 C          -0.4258   -5.3703   16.6089 C.ar  401  ZMA401      0.1335
      6 N           0.0134   -4.8431   15.4242 N.ar  401  ZMA401     -0.2126
      7 N          -1.7718   -5.5521   16.8206 N.ar  401  ZMA401     -0.2155
      8 C          -2.6973   -5.2384   15.8624 C.ar  401  ZMA401      0.1475
      9 N          -4.0791   -5.4142   16.1082 N.pl3 401  ZMA401     -0.3413
     10 C          -2.2284   -4.7180   14.6607 C.ar  401  ZMA401      0.1495
     11 N          -2.9052   -4.3097   13.5727 N.ar  401  ZMA401     -0.2042
     12 C          -0.9011   -4.5439   14.4722 C.ar  401  ZMA401      0.1670
     13 N          -0.6742   -4.0286   13.2556 N.ar  401  ZMA401     -0.2949
     14 C          -1.9274   -3.8852   12.7242 C.ar  401  ZMA401      0.2519
     15 N          -2.2411   -3.3323   11.4340 N.ar  401  ZMA401     -0.1137
     16 N          -1.3606   -2.8722   10.5586 N.ar  401  ZMA401     -0.1527
     17 C          -2.0652   -2.4259    9.5046 C.ar  401  ZMA401      0.0698
     18 C          -3.3984   -2.6317    9.7770 C.ar  401  ZMA401      0.0698
     19 N          -3.4828   -3.2006   10.9929 N.ar  401  ZMA401     -0.1527
     20 C           0.6566   -3.7234   12.7262 C.3     1  UNL1        0.0166
     21 H           3.4295   -8.8196   15.8877 H       1  UNL1        0.0230
     22 H           4.1432   -7.6514   17.0644 H       1  UNL1        0.0230
     23 H           3.6750   -7.0986   15.4070 H       1  UNL1        0.0230
     24 H           1.7103   -8.1424   17.5538 H       1  UNL1        0.0263
     25 H           1.2818   -7.5499   15.9003 H       1  UNL1        0.0263
     26 H           2.3220   -5.2844   16.5333 H       1  UNL1        0.0269
     27 H           2.6283   -5.9491   18.1721 H       1  UNL1        0.0269
     28 H           0.1258   -6.2708   18.5036 H       1  UNL1        0.0344
     29 H           0.6500   -4.5829   18.2331 H       1  UNL1        0.0344
     30 H          -4.7793   -5.1596   15.3960 H       1  UNL1        0.1438
     31 H          -4.4016   -5.7828   17.0144 H       1  UNL1        0.1438
     32 H          -1.6384   -1.9846    8.6139 H       1  UNL1        0.0864
     33 H          -4.2407   -2.3858    9.1448 H       1  UNL1        0.0864
     34 H           0.6367   -3.3093   11.7072 H       1  UNL1        0.0457
     35 H           1.2616   -4.6548   12.6984 H       1  UNL1        0.0457
     36 H           1.1604   -2.9890   13.3884 H       1  UNL1        0.0457
@<TRIPOS>BOND
     1    17    18   ar
     2    17    16   ar
     3    18    19   ar
     4    16    15   ar
     5    19    15   ar
     6    15    14    1
     7    14    13   ar
     8    14    11   ar
     9    13    12   ar
    10    11    10   ar
    11    12    10   ar
    12    12     6   ar
    13    10     8   ar
    14     6     5   ar
    15     8     9    1
    16     8     7   ar
    17     1     2    1
    18     5     7   ar
    19     5     4    1
    20     2     3    1
    21     3     4    1
    22    13    20    1
    23     1    21    1
    24     1    22    1
    25     1    23    1
    26     2    24    1
    27     2    25    1
    28     3    26    1
    29     3    27    1
    30     4    28    1
    31     4    29    1
    32     9    30    1
    33     9    31    1
    34    17    32    1
    35    18    33    1
    36    20    34    1
    37    20    35    1
    38    20    36    1
