@<TRIPOS>MOLECULE
CAT-13d
 43 46 0 0 0
SMALL
GASTEIGER
****
Structure written by MMmdl.
@<TRIPOS>ATOM
      1 C          11.7860   -2.3271    1.0538 C.3     1  UNL1        0.0572
      2 N          13.1444   -2.5995    0.5661 N.am    1  UNL1       -0.1644
      3 C          14.2729   -2.5333    1.2874 C.2     1  UNL1        0.3370
      4 N          14.3652   -2.2938    2.6004 N.pl3   1  UNL1       -0.2538
      5 N          15.3469   -2.7616    0.5345 N.2     1  UNL1       -0.2619
      6 C          15.0192   -3.0683   -0.8497 C.3     1  UNL1        0.2046
      7 C          15.5634   -1.9948   -1.8100 C.ar    1  UNL1        0.0034
      8 C          16.1894   -2.3496   -3.0284 C.ar    1  UNL1       -0.0544
      9 C          16.6159   -1.3547   -3.9204 C.ar    1  UNL1       -0.0608
     10 C          16.4013    0.0015   -3.6209 C.ar    1  UNL1       -0.0540
     11 C          15.8080    0.4004   -2.4044 C.ar    1  UNL1       -0.0175
     12 C          15.5587    1.8326   -2.1090 C.ar    1  UNL1       -0.0165
     13 C          15.2649    2.7464   -3.1489 C.ar    1  UNL1       -0.0539
     14 C          14.9444    4.0910   -2.8732 C.ar    1  UNL1       -0.0598
     15 C          14.9243    4.5522   -1.5465 C.ar    1  UNL1       -0.0434
     16 C          15.2486    3.6732   -0.5009 C.ar    1  UNL1        0.0416
     17 CL         15.2426    4.2511    1.1245 Cl      1  UNL1       -0.0835
     18 C          15.5647    2.3288   -0.7836 C.ar    1  UNL1       -0.0357
     19 C          15.4125   -0.6168   -1.5039 C.ar    1  UNL1       -0.0468
     20 C          15.5900   -4.4689   -1.1332 C.3     1  UNL1        0.0100
     21 C          15.3463   -5.2332   -2.4204 C.3     1  UNL1       -0.0455
     22 C          16.7355   -4.7539   -2.0801 C.3     1  UNL1       -0.0455
     23 C          13.4812   -2.9579   -0.7768 C.2     1  UNL1        0.3222
     24 O          12.6571   -3.1079   -1.6844 O.2     1  UNL1       -0.2526
     25 H          11.0292   -2.7766    0.4106 H       1  UNL1        0.0602
     26 H          11.6524   -2.7177    2.0625 H       1  UNL1        0.0602
     27 H          11.6181   -1.2506    1.0770 H       1  UNL1        0.0602
     28 H          13.5838   -2.0392    3.2009 H       1  UNL1        0.2411
     29 H          16.3098   -2.7539    0.8773 H       1  UNL1        0.2589
     30 H          16.3451   -3.3789   -3.3174 H       1  UNL1        0.0622
     31 H          17.0896   -1.6334   -4.8519 H       1  UNL1        0.0618
     32 H          16.6981    0.7398   -4.3492 H       1  UNL1        0.0624
     33 H          15.2371    2.4076   -4.1742 H       1  UNL1        0.0624
     34 H          14.6865    4.7672   -3.6749 H       1  UNL1        0.0618
     35 H          14.6583    5.5769   -1.3284 H       1  UNL1        0.0632
     36 H          15.8089    1.6730    0.0351 H       1  UNL1        0.0638
     37 H          14.9319   -0.3282   -0.5818 H       1  UNL1        0.0628
     38 H          15.5716   -5.0931   -0.2434 H       1  UNL1        0.0346
     39 H          15.1570   -6.3019   -2.3389 H       1  UNL1        0.0269
     40 H          14.8362   -4.7371   -3.2436 H       1  UNL1        0.0269
     41 H          17.1286   -3.9418   -2.6801 H       1  UNL1        0.0269
     42 H          17.4697   -5.4962   -1.7713 H       1  UNL1        0.0269
     43 H          15.2860   -2.2903    3.0398 H       1  UNL1        0.2411
@<TRIPOS>BOND
     1     1     2    1
     2     1    25    1
     3     1    26    1
     4     1    27    1
     5     2     3    1
     6     2    23   am
     7     3     4    1
     8     3     5    2
     9     4    28    1
    10     4    43    1
    11     5     6    1
    12     5    29    1
    13     6     7    1
    14     6    20    1
    15     6    23    1
    16     7     8   ar
    17     7    19   ar
    18     8     9   ar
    19     8    30    1
    20     9    10   ar
    21     9    31    1
    22    10    11   ar
    23    10    32    1
    24    11    12    1
    25    11    19   ar
    26    12    13   ar
    27    12    18   ar
    28    13    14   ar
    29    13    33    1
    30    14    15   ar
    31    14    34    1
    32    15    16   ar
    33    15    35    1
    34    16    18   ar
    35    16    17    1
    36    18    36    1
    37    19    37    1
    38    20    21    1
    39    20    22    1
    40    20    38    1
    41    21    22    1
    42    21    39    1
    43    21    40    1
    44    22    41    1
    45    22    42    1
    46    23    24    2
