@<TRIPOS>MOLECULE
CAT-4c
 50 53 0 0 0
SMALL
GASTEIGER
****
Structure written by MMmdl.
@<TRIPOS>ATOM
      1 C          12.5711    5.3513   -2.7657 C.3     1  UNL1        0.0788
      2 O          13.7081    5.1549   -1.9289 O.3     1  UNL1       -0.4951
      3 C          14.3525    3.9582   -2.1070 C.ar    1  UNL1        0.1201
      4 C          14.8801    3.2992   -0.9813 C.ar    1  UNL1       -0.0194
      5 C          15.4000    1.9956   -1.1053 C.ar    1  UNL1       -0.0506
      6 C          15.4241    1.3431   -2.3579 C.ar    1  UNL1       -0.0176
      7 C          15.7606   -0.0825   -2.4958 C.ar    1  UNL1       -0.0175
      8 C          16.4104   -0.5580   -3.6479 C.ar    1  UNL1       -0.0540
      9 C          16.5936   -1.9307   -3.8581 C.ar    1  UNL1       -0.0608
     10 C          16.0899   -2.8628   -2.9346 C.ar    1  UNL1       -0.0541
     11 C          15.4302   -2.4158   -1.7641 C.ar    1  UNL1        0.0078
     12 C          14.8180   -3.3955   -0.7510 C.3     1  UNL1        0.2275
     13 C          15.1632   -4.8768   -1.0176 C.ar    1  UNL1        0.0072
     14 C          14.3265   -5.7683   -1.7334 C.ar    1  UNL1       -0.0541
     15 C          14.7023   -7.1138   -1.9228 C.ar    1  UNL1       -0.0614
     16 C          15.9322   -7.5796   -1.4262 C.ar    1  UNL1       -0.0617
     17 C          16.7922   -6.7001   -0.7600 C.ar    1  UNL1       -0.0614
     18 C          16.3964   -5.3713   -0.5455 C.ar    1  UNL1       -0.0541
     19 N          15.2313   -3.0387    0.6068 N.2     1  UNL1       -0.2585
     20 C          14.2081   -2.6970    1.3866 C.2     1  UNL1        0.3372
     21 N          14.3761   -2.3746    2.6722 N.pl3   1  UNL1       -0.2538
     22 N          13.0452   -2.7268    0.7206 N.am    1  UNL1       -0.1641
     23 C          11.7303   -2.3304    1.2406 C.3     1  UNL1        0.0572
     24 C          13.2977   -3.1408   -0.6221 C.2     1  UNL1        0.3267
     25 O          12.4259   -3.2223   -1.4953 O.2     1  UNL1       -0.2522
     26 C          15.3168   -1.0203   -1.5415 C.ar    1  UNL1       -0.0464
     27 C          15.0015    2.0596   -3.4966 C.ar    1  UNL1       -0.0506
     28 C          14.4602    3.3469   -3.3731 C.ar    1  UNL1       -0.0194
     29 H          11.9724    6.1855   -2.4058 H       1  UNL1        0.0660
     30 H          12.8593    5.5867   -3.7903 H       1  UNL1        0.0660
     31 H          11.9234    4.4734   -2.7734 H       1  UNL1        0.0660
     32 H          14.8193    3.7674   -0.0099 H       1  UNL1        0.0654
     33 H          15.7378    1.4794   -0.2207 H       1  UNL1        0.0625
     34 H          16.7419    0.1377   -4.4013 H       1  UNL1        0.0624
     35 H          17.0959   -2.2498   -4.7563 H       1  UNL1        0.0618
     36 H          16.2160   -3.9144   -3.1523 H       1  UNL1        0.0622
     37 H          13.3830   -5.4459   -2.1401 H       1  UNL1        0.0622
     38 H          14.0449   -7.7904   -2.4492 H       1  UNL1        0.0618
     39 H          16.2289   -8.6066   -1.5336 H       1  UNL1        0.0618
     40 H          17.7478   -7.0430   -0.3881 H       1  UNL1        0.0618
     41 H          17.0549   -4.7250    0.0063 H       1  UNL1        0.0622
     42 H          16.2103   -3.0095    0.8918 H       1  UNL1        0.2592
     43 H          13.6321   -2.0604    3.2929 H       1  UNL1        0.2411
     44 H          10.9201   -2.8078    0.6888 H       1  UNL1        0.0602
     45 H          11.6300   -2.5995    2.2917 H       1  UNL1        0.0602
     46 H          11.6158   -1.2514    1.1443 H       1  UNL1        0.0602
     47 H          14.8061   -0.6509   -0.6635 H       1  UNL1        0.0628
     48 H          15.0098    1.5949   -4.4724 H       1  UNL1        0.0625
     49 H          14.0883    3.8355   -4.2589 H       1  UNL1        0.0654
     50 H          15.3185   -2.3684    3.0651 H       1  UNL1        0.2411
@<TRIPOS>BOND
     1     1     2    1
     2     1    29    1
     3     1    30    1
     4     1    31    1
     5     2     3    1
     6     3     4   ar
     7     3    28   ar
     8     4     5   ar
     9     4    32    1
    10     5     6   ar
    11     5    33    1
    12     6     7    1
    13     6    27   ar
    14     7     8   ar
    15     7    26   ar
    16     8     9   ar
    17     8    34    1
    18     9    10   ar
    19     9    35    1
    20    10    11   ar
    21    10    36    1
    22    11    12    1
    23    11    26   ar
    24    12    13    1
    25    12    19    1
    26    12    24    1
    27    13    14   ar
    28    13    18   ar
    29    14    15   ar
    30    14    37    1
    31    15    16   ar
    32    15    38    1
    33    16    17   ar
    34    16    39    1
    35    17    18   ar
    36    17    40    1
    37    18    41    1
    38    19    20    2
    39    19    42    1
    40    20    21    1
    41    20    22    1
    42    21    43    1
    43    21    50    1
    44    22    23    1
    45    22    24   am
    46    23    44    1
    47    23    45    1
    48    23    46    1
    49    24    25    2
    50    26    47    1
    51    27    28   ar
    52    27    48    1
    53    28    49    1
