@<TRIPOS>MOLECULE
EPE
 33 33 0 0 0
SMALL
GASTEIGER

@<TRIPOS>ATOM
      1 N          -0.8200   -0.3300    0.2580 N.3     1  LIG1       -0.2983
      2 C          -1.6690    0.5570    1.0610 C.3     1  LIG1        0.0118
      3 C          -1.6930    0.0720    2.5110 C.3     1  LIG1        0.0118
      4 N          -0.3420    0.1470    3.0790 N.3     1  LIG1       -0.2977
      5 C           0.5070   -0.7400    2.2760 C.3     1  LIG1        0.0118
      6 C           0.5310   -0.2550    0.8260 C.3     1  LIG1        0.0118
      7 C          -0.4160   -0.4410    4.4230 C.3     1  LIG1        0.0222
      8 C           0.9660   -0.3950    5.0760 C.3     1  LIG1        0.0569
      9 O           1.4020    0.9610    5.1740 O.3     1  LIG1       -0.3937
     10 C          -0.7460    0.2580   -1.0850 C.3     1  LIG1        0.0208
     11 C           0.1280   -0.6210   -1.9800 C.3     1  LIG1        0.1053
     12 S           0.2190    0.1040   -3.6400 S.O2    1  LIG1        0.0810
     13 O          -1.0190   -0.0010   -4.3270 O.2     1  LIG1       -0.1474
     14 O           0.9860    1.3010   -3.6460 O.2     1  LIG1       -0.1474
     15 O           1.1100   -0.8700   -4.3970 O.3     1  LIG1       -0.2539
     16 H          -2.6830    0.5510    0.6590 H       1  LIG1        0.0439
     17 H          -1.2710    1.5710    1.0240 H       1  LIG1        0.0439
     18 H          -2.0440   -0.9590    2.5430 H       1  LIG1        0.0439
     19 H          -2.3670    0.7020    3.0930 H       1  LIG1        0.0439
     20 H           1.5200   -0.7340    2.6770 H       1  LIG1        0.0439
     21 H           0.1090   -1.7540    2.3130 H       1  LIG1        0.0439
     22 H           1.2040   -0.8850    0.2440 H       1  LIG1        0.0439
     23 H           0.8810    0.7750    0.7940 H       1  LIG1        0.0439
     24 H          -0.7480   -1.4760    4.3480 H       1  LIG1        0.0449
     25 H          -1.1230    0.1240    5.0290 H       1  LIG1        0.0449
     26 H           1.6730   -0.9610    4.4700 H       1  LIG1        0.0570
     27 H           0.9110   -0.8320    6.0730 H       1  LIG1        0.0570
     28 H           2.2750    0.9450    5.5900 H       1  LIG1        0.2095
     29 H          -1.7480    0.3230   -1.5090 H       1  LIG1        0.0443
     30 H          -0.3130    1.2560   -1.0220 H       1  LIG1        0.0443
     31 H           1.1310   -0.6870   -1.5570 H       1  LIG1        0.0538
     32 H          -0.3040   -1.6200   -2.0440 H       1  LIG1        0.0538
     33 H           1.1940   -0.5290   -5.2980 H       1  LIG1        0.2445
@<TRIPOS>BOND
     1     1     2    1
     2     1     6    1
     3     1    10    1
     4     2     3    1
     5     2    16    1
     6     2    17    1
     7     3     4    1
     8     3    18    1
     9     3    19    1
    10     4     5    1
    11     4     7    1
    12     5     6    1
    13     5    20    1
    14     5    21    1
    15     6    22    1
    16     6    23    1
    17     7     8    1
    18     7    24    1
    19     7    25    1
    20     8     9    1
    21     8    26    1
    22     8    27    1
    23     9    28    1
    24    10    11    1
    25    10    29    1
    26    10    30    1
    27    11    12    1
    28    11    31    1
    29    11    32    1
    30    12    13    2
    31    12    14    2
    32    12    15    1
    33    15    33    1
