EPE
  CCTOOLS-0619201034

 33 33  0  0  0  0  0  0  0  0999 V2000
   61.6520   47.3370   51.6160 N   0  0  0  0  0
   63.0510   46.9050   51.9670 C   0  0  0  0  0
   63.9620   47.2570   50.7960 C   0  0  0  0  0
   63.5510   46.5440   49.5780 N   0  0  0  0  0
   62.1510   46.9100   49.2480 C   0  0  0  0  0
   61.2180   46.5540   50.4020 C   0  0  0  0  0
   64.3680   46.8930   48.3850 C   0  0  0  0  0
   65.8540   46.7210   48.6130 C   0  0  0  0  0
   66.2400   45.4000   48.9790 O   0  0  0  0  0
   60.6850   46.9920   52.7090 C   0  0  0  0  0
   60.8700   47.9740   53.8930 C   0  0  0  0  0
   59.5590   47.6920   55.0900 S   0  0  0  0  0
   59.7320   48.6940   56.1150 O   0  0  0  0  0
   59.7370   46.3270   55.5960 O   0  0  0  0  0
   58.3310   47.8630   54.3580 O   0  0  0  0  0
   63.4050   47.3340   52.9320 H   0  0  0  0  0
   63.1110   45.8280   52.2510 H   0  0  0  0  0
   64.0130   48.3580   50.6300 H   0  0  0  0  0
   65.0340   47.0720   51.0380 H   0  0  0  0  0
   62.0600   47.9820   48.9580 H   0  0  0  0  0
   61.8170   46.4490   48.2880 H   0  0  0  0  0
   61.1690   45.4560   50.5920 H   0  0  0  0  0
   60.1430   46.7110   50.1500 H   0  0  0  0  0
   64.0330   46.3160   47.4910 H   0  0  0  0  0
   64.1360   47.9250   48.0320 H   0  0  0  0  0
   66.4270   47.0610   47.7190 H   0  0  0  0  0
   66.2200   47.4570   49.3650 H   0  0  0  0  0
   67.1720   45.2920   49.1220 H   0  0  0  0  0
   59.6310   46.9640   52.3450 H   0  0  0  0  0
   60.7720   45.9270   53.0270 H   0  0  0  0  0
   61.8850   47.9040   54.3490 H   0  0  0  0  0
   60.9210   49.0370   53.5600 H   0  0  0  0  0
   57.6380   47.7140   54.9900 H   0  0  0  0  0
  1  2  1  0  0  0
  1  6  1  0  0  0
  1 10  1  0  0  0
  2  3  1  0  0  0
  2 16  1  0  0  0
  2 17  1  0  0  0
  3  4  1  0  0  0
  3 18  1  0  0  0
  3 19  1  0  0  0
  4  5  1  0  0  0
  4  7  1  0  0  0
  5  6  1  0  0  0
  5 20  1  0  0  0
  5 21  1  0  0  0
  6 22  1  0  0  0
  6 23  1  0  0  0
  7  8  1  0  0  0
  7 24  1  0  0  0
  7 25  1  0  0  0
  8  9  1  0  0  0
  8 26  1  0  0  0
  8 27  1  0  0  0
  9 28  1  0  0  0
 10 11  1  0  0  0
 10 29  1  0  0  0
 10 30  1  0  0  0
 11 12  1  0  0  0
 11 31  1  0  0  0
 11 32  1  0  0  0
 12 13  2  0  0  0
 12 14  2  0  0  0
 12 15  1  0  0  0
 15 33  1  0  0  0
M  END
$$$$
