@<TRIPOS>MOLECULE
1d
 52 54 0 0 0
SMALL
GASTEIGER
****
Structure written by MMmdl.
@<TRIPOS>ATOM
      1 N          18.2724  -13.2441   21.7072 N.am    1  UNL1       -0.2853
      2 C          18.0753  -11.9483   21.0285 C.3     1  UNL1        0.1024
      3 C          17.4016  -13.7827   22.5957 C.2     1  UNL1        0.2646
      4 O          16.4030  -13.1700   22.9772 O.2     1  UNL1       -0.2694
      5 C          16.6731  -11.7594   20.4013 C.2     1  UNL1        0.2338
      6 O          16.1781  -12.6531   19.7125 O.2     1  UNL1       -0.2738
      7 C          19.1739  -11.8989   19.9568 C.3     1  UNL1       -0.0243
      8 C          17.6534  -15.1828   23.1886 C.3     1  UNL1        0.0574
      9 N          16.0509  -10.6004   20.6443 N.am    1  UNL1       -0.3097
     10 C          20.2726  -12.8189   20.4503 C.3     1  UNL1       -0.0350
     11 N          16.4103  -15.9689   23.1123 N.4     1  UNL1        0.2276
     12 C          18.1391  -15.1142   24.6551 C.3     1  UNL1        0.0241
     13 C          14.7145  -10.2250   20.2026 C.3     1  UNL1        0.0369
     14 C          19.5531  -13.8450   21.3178 C.3     1  UNL1        0.0157
     15 C          19.5631  -14.6147   24.8265 C.ar    1  UNL1       -0.0415
     16 C          13.6469  -10.3699   21.2731 C.ar    1  UNL1       -0.0293
     17 C          20.6572  -15.4491   24.5148 C.ar    1  UNL1       -0.0584
     18 C          12.9112  -11.5669   21.3982 C.ar    1  UNL1       -0.0570
     19 C          21.9737  -14.9613   24.6353 C.ar    1  UNL1       -0.0615
     20 C          11.8983  -11.6758   22.3733 C.ar    1  UNL1       -0.0605
     21 C          22.2010  -13.6398   25.0643 C.ar    1  UNL1       -0.0617
     22 C          11.6219  -10.5921   23.2310 C.ar    1  UNL1       -0.0486
     23 C          21.1131  -12.8168   25.4045 C.ar    1  UNL1       -0.0615
     24 C          12.3743   -9.4058   23.1282 C.ar    1  UNL1        0.0137
     25 C          19.8041  -13.3100   25.2945 C.ar    1  UNL1       -0.0584
     26 C          13.3767   -9.2950   22.1455 C.ar    1  UNL1       -0.0439
     27 H          18.2537  -11.1637   21.7634 H       1  UNL1        0.0597
     28 H          18.8042  -12.2583   18.9947 H       1  UNL1        0.0288
     29 H          19.5472  -10.8908   19.8140 H       1  UNL1        0.0288
     30 H          18.3806  -15.7377   22.5980 H       1  UNL1        0.0952
     31 H          16.5668   -9.8981   21.1739 H       1  UNL1        0.1491
     32 H          20.8421  -13.2750   19.6390 H       1  UNL1        0.0281
     33 H          20.9743  -12.2534   21.0652 H       1  UNL1        0.0281
     34 H          16.5521  -16.8846   23.5108 H       1  UNL1        0.2002
     35 H          15.6862  -15.4781   23.6239 H       1  UNL1        0.2002
     36 H          16.1261  -16.0532   22.1476 H       1  UNL1        0.2002
     37 H          17.4612  -14.4952   25.2468 H       1  UNL1        0.0373
     38 H          18.0904  -16.1065   25.1051 H       1  UNL1        0.0373
     39 H          14.7520   -9.1718   19.9317 H       1  UNL1        0.0512
     40 H          14.4212  -10.7708   19.3037 H       1  UNL1        0.0512
     41 H          20.1692  -14.1076   22.1763 H       1  UNL1        0.0465
     42 H          19.3681  -14.7514   20.7399 H       1  UNL1        0.0465
     43 H          20.4945  -16.4621   24.1755 H       1  UNL1        0.0620
     44 H          13.1236  -12.4028   20.7462 H       1  UNL1        0.0621
     45 H          22.8124  -15.6000   24.3977 H       1  UNL1        0.0618
     46 H          11.3346  -12.5937   22.4705 H       1  UNL1        0.0618
     47 H          23.2098  -13.2642   25.1457 H       1  UNL1        0.0618
     48 H          21.2689  -11.8094   25.7595 H       1  UNL1        0.0618
     49 I          12.0627   -7.8307   24.4709 I       1  UNL1       -0.0438
     50 H          18.9889  -12.6799   25.5910 H       1  UNL1        0.0620
     51 H          13.9552   -8.3868   22.0794 H       1  UNL1        0.0631
     52 H          10.8491  -10.6816   23.9820 H       1  UNL1        0.0628
@<TRIPOS>BOND
     1     1     2    1
     2     1    14    1
     3     1     3   am
     4     2     5    1
     5     2     7    1
     6     2    27    1
     7     3     8    1
     8     3     4    2
     9     5     6    2
    10     5     9   am
    11     7    10    1
    12     7    28    1
    13     7    29    1
    14     8    11    1
    15     8    12    1
    16     8    30    1
    17     9    13    1
    18     9    31    1
    19    10    14    1
    20    10    32    1
    21    10    33    1
    22    11    34    1
    23    11    35    1
    24    11    36    1
    25    12    15    1
    26    12    37    1
    27    12    38    1
    28    13    16    1
    29    13    39    1
    30    13    40    1
    31    14    41    1
    32    14    42    1
    33    15    17   ar
    34    15    25   ar
    35    16    18   ar
    36    16    26   ar
    37    17    19   ar
    38    17    43    1
    39    18    20   ar
    40    18    44    1
    41    19    21   ar
    42    19    45    1
    43    20    22   ar
    44    20    46    1
    45    21    23   ar
    46    21    47    1
    47    22    24   ar
    48    22    52    1
    49    23    25   ar
    50    23    48    1
    51    24    26   ar
    52    24    49    1
    53    25    50    1
    54    26    51    1
