@<TRIPOS>MOLECULE
MBN
 15 15 0 0 0
SMALL
GASTEIGER

@<TRIPOS>ATOM
      1 C           0.0000    0.0010    2.4320 C.3     1  LIG1       -0.0397
      2 C           0.0000    0.0010    0.9250 C.ar    1  LIG1       -0.0504
      3 C           1.1970   -0.0000    0.2340 C.ar    1  LIG1       -0.0588
      4 C           1.1970   -0.0000   -1.1470 C.ar    1  LIG1       -0.0615
      5 C           0.0000    0.0000   -1.8380 C.ar    1  LIG1       -0.0617
      6 C          -1.1970    0.0010   -1.1470 C.ar    1  LIG1       -0.0615
      7 C          -1.1970   -0.0030    0.2340 C.ar    1  LIG1       -0.0588
      8 H           0.8890   -0.5140    2.7960 H       1  LIG1        0.0278
      9 H           0.0010    1.0280    2.7960 H       1  LIG1        0.0278
     10 H          -0.8900   -0.5110    2.7960 H       1  LIG1        0.0278
     11 H           2.1320   -0.0010    0.7740 H       1  LIG1        0.0620
     12 H           2.1320   -0.0010   -1.6870 H       1  LIG1        0.0618
     13 H           0.0000    0.0010   -2.9180 H       1  LIG1        0.0618
     14 H          -2.1320    0.0020   -1.6870 H       1  LIG1        0.0618
     15 H          -2.1320   -0.0020    0.7740 H       1  LIG1        0.0620
@<TRIPOS>BOND
     1     1     2    1
     2     1     8    1
     3     1     9    1
     4     1    10    1
     5     2     3   ar
     6     2     7   ar
     7     3     4   ar
     8     3    11    1
     9     4     5   ar
    10     4    12    1
    11     5     6   ar
    12     5    13    1
    13     6     7   ar
    14     6    14    1
    15     7    15    1
