@<TRIPOS>MOLECULE
lig
15 15 1
SMALL
NO_CHARGES
@<TRIPOS>ATOM
      1 C1          0.7718   -0.3026   -0.6824 C.2       1 noname      0.0000
      2 C2          1.5927    0.1242    0.3549 C.2       1 noname      0.0000
      3 C3          1.9715    1.4590    0.4372 C.2       1 noname      0.0000
      4 C4          1.5295    2.3671   -0.5179 C.2       1 noname      0.0000
      5 C5          0.7086    1.9403   -1.5552 C.2       1 noname      0.0000
      6 C6          0.3297    0.6055   -1.6375 C.2       1 noname      0.0000
      7 C7          1.9274    3.7691   -0.4314 C.3       1 noname      0.0000
      8 H1          0.4938   -1.2821   -0.7428 H         1 noname      0.0000
      9 H2          1.9171   -0.5421    1.0558 H         1 noname      0.0000
     10 H3          2.5739    1.7722    1.1984 H         1 noname      0.0000
     11 H4          0.3842    2.6066   -2.2560 H         1 noname      0.0000
     12 H5         -0.2727    0.2923   -2.3987 H         1 noname      0.0000
     13 H6          1.5782    4.1885    0.5121 H         1 noname      0.0000
     14 H7          1.4874    4.3235   -1.2604 H         1 noname      0.0000
     15 H8          3.0138    3.8422   -0.4815 H         1 noname      0.0000
@<TRIPOS>BOND
1	1	2	2
2	1	6	1
3	1	8	1
4	2	3	1
5	2	9	1
6	3	4	2
7	3	10	1
8	4	5	1
9	4	7	1
10	5	6	2
11	5	11	1
12	6	12	1
13	7	15	1
14	7	14	1
15	7	13	1
@<TRIPOS>SUBSTRUCTURE
1	noname	1
