@<TRIPOS>MOLECULE
lig
18 18 1
SMALL
NO_CHARGES
@<TRIPOS>ATOM
      1 C1          0.7020   -0.1799   -0.9802 C.2       1 noname      0.0000
      2 C2          1.3369    0.1234    0.2186 C.2       1 noname      0.0000
      3 C3          1.8171    1.4080    0.4451 C.2       1 noname      0.0000
      4 C4          1.6624    2.3893   -0.5272 C.2       1 noname      0.0000
      5 C5          1.0274    2.0860   -1.7259 C.2       1 noname      0.0000
      6 C6          0.5472    0.8014   -1.9524 C.2       1 noname      0.0000
      7 C7          2.1667    3.7386   -0.2893 C.3       1 noname      0.0000
      8 H1          0.3496   -1.1226   -1.1464 H         1 noname      0.0000
      9 H2          1.4505   -0.5967    0.9320 H         1 noname      0.0000
     10 H3          2.2830    1.6306    1.3247 H         1 noname      0.0000
     11 H4          0.9139    2.8061   -2.4394 H         1 noname      0.0000
     12 H5          0.0813    0.5788   -2.8321 H         1 noname      0.0000
     13 C8          1.0746    4.5822    0.3714 C.3       1 noname      0.0000
     14 H6          2.4521    4.1924   -1.2383 H         1 noname      0.0000
     15 H7          3.0359    3.6912    0.3667 H         1 noname      0.0000
     16 H8          1.4511    5.5896    0.5490 H         1 noname      0.0000
     17 H9          0.2054    4.6296   -0.2846 H         1 noname      0.0000
     18 H10         0.7892    4.1284    1.3205 H         1 noname      0.0000
@<TRIPOS>BOND
1	1	2	2
2	1	6	1
3	1	8	1
4	2	3	1
5	2	9	1
6	3	4	2
7	3	10	1
8	4	5	1
9	4	7	1
10	5	6	2
11	5	11	1
12	6	12	1
13	7	15	1
14	7	14	1
15	7	13	1
16	13	18	1
17	13	17	1
18	13	16	1
@<TRIPOS>SUBSTRUCTURE
1	noname	1
