@<TRIPOS>MOLECULE
lig
12 12 1
SMALL
NO_CHARGES
@<TRIPOS>ATOM
      1 C1          0.0000    0.0000    0.0000 C.2       1 noname      0.0000
      2 C2          1.3900    0.0000    0.0000 C.2       1 noname      0.0000
      3 C3          2.0850    1.2038    0.0000 C.2       1 noname      0.0000
      4 C4          1.3900    2.4076    0.0000 C.2       1 noname      0.0000
      5 C5         -0.0000    2.4076    0.0000 C.2       1 noname      0.0000
      6 C6         -0.6950    1.2038    0.0000 C.2       1 noname      0.0000
      7 H1          1.9000    3.2909    0.0000 H         1 noname      0.0000
      8 H2         -0.5100   -0.8833    0.0000 H         1 noname      0.0000
      9 H3          1.9000   -0.8833    0.0000 H         1 noname      0.0000
     10 H4          3.1050    1.2038    0.0000 H         1 noname      0.0000
     11 H5         -0.5100    3.2909    0.0000 H         1 noname      0.0000
     12 H6         -1.7150    1.2038    0.0000 H         1 noname      0.0000
@<TRIPOS>BOND
1	1	2	2
2	1	6	1
3	1	8	1
4	2	3	1
5	2	9	1
6	3	4	2
7	3	10	1
8	4	5	1
9	4	7	1
10	5	6	2
11	5	11	1
12	6	12	1
@<TRIPOS>SUBSTRUCTURE
1	noname	1
