@<TRIPOS>MOLECULE
5
 52 54 0 0 0
SMALL
GASTEIGER
****
Structure written by MMmdl.
@<TRIPOS>ATOM
      1 N          18.3833  -13.2487   21.6777 N.am    1  UNL1       -0.2853
      2 C          18.2278  -11.9595   20.9752 C.3     1  UNL1        0.1024
      3 C          17.4784  -13.7664   22.5477 C.2     1  UNL1        0.2646
      4 O          16.4768  -13.1400   22.8994 O.2     1  UNL1       -0.2694
      5 C          16.8531  -11.7833   20.2962 C.2     1  UNL1        0.2338
      6 O          16.4281  -12.6525   19.5327 O.2     1  UNL1       -0.2738
      7 C          19.3563  -11.9389   19.9323 C.3     1  UNL1       -0.0243
      8 C          17.6879  -15.1677   23.1537 C.3     1  UNL1        0.0574
      9 N          16.1691  -10.6729   20.5899 N.am    1  UNL1       -0.3097
     10 C          20.4245  -12.8650   20.4723 C.3     1  UNL1       -0.0350
     11 N          16.4280  -15.9253   23.0586 N.4     1  UNL1        0.2276
     12 C          18.1459  -15.1031   24.6296 C.3     1  UNL1        0.0241
     13 C          14.8261  -10.3435   20.1328 C.3     1  UNL1        0.0369
     14 C          19.6649  -13.8715   21.3288 C.3     1  UNL1        0.0157
     15 C          19.5691  -14.6122   24.8281 C.ar    1  UNL1       -0.0415
     16 C          13.7216  -10.7958   21.0762 C.ar    1  UNL1       -0.0303
     17 C          19.8071  -13.3109   25.3061 C.ar    1  UNL1       -0.0584
     18 C          12.8500   -9.8475   21.6537 C.ar    1  UNL1       -0.0571
     19 C          21.1149  -12.8161   25.4203 C.ar    1  UNL1       -0.0615
     20 C          11.8084  -10.2645   22.5058 C.ar    1  UNL1       -0.0615
     21 C          22.2043  -13.6341   25.0731 C.ar    1  UNL1       -0.0617
     22 C          11.6256  -11.6332   22.7778 C.ar    1  UNL1       -0.0617
     23 C          21.9802  -14.9539   24.6379 C.ar    1  UNL1       -0.0615
     24 C          12.4938  -12.5824   22.2070 C.ar    1  UNL1       -0.0615
     25 C          20.6648  -15.4443   24.5158 C.ar    1  UNL1       -0.0584
     26 C          13.5398  -12.1656   21.3620 C.ar    1  UNL1       -0.0571
     27 H          18.3841  -11.1629   21.7027 H       1  UNL1        0.0597
     28 H          19.0117  -12.3169   18.9680 H       1  UNL1        0.0288
     29 H          19.7448  -10.9387   19.7693 H       1  UNL1        0.0288
     30 H          18.4137  -15.7409   22.5791 H       1  UNL1        0.0952
     31 H          16.6314   -9.9767   21.1728 H       1  UNL1        0.1491
     32 H          21.0079  -13.3389   19.6825 H       1  UNL1        0.0281
     33 H          21.1150  -12.3008   21.1005 H       1  UNL1        0.0281
     34 H          16.5428  -16.8438   23.4593 H       1  UNL1        0.2002
     35 H          15.7072  -15.4188   23.5592 H       1  UNL1        0.2002
     36 H          16.1568  -16.0037   22.0896 H       1  UNL1        0.2002
     37 H          17.4605  -14.4793   25.2074 H       1  UNL1        0.0373
     38 H          18.0818  -16.0952   25.0780 H       1  UNL1        0.0373
     39 H          14.7758   -9.2606   20.0240 H       1  UNL1        0.0512
     40 H          14.6390  -10.7685   19.1451 H       1  UNL1        0.0512
     41 H          20.2544  -14.1337   22.2048 H       1  UNL1        0.0465
     42 H          19.4825  -14.7805   20.7542 H       1  UNL1        0.0465
     43 H          18.9898  -12.6833   25.6026 H       1  UNL1        0.0620
     44 H          12.9733   -8.7971   21.4417 H       1  UNL1        0.0621
     45 H          21.2679  -11.8121   25.7857 H       1  UNL1        0.0618
     46 H          11.1429   -9.5393   22.9496 H       1  UNL1        0.0618
     47 H          23.2123  -13.2576   25.1589 H       1  UNL1        0.0618
     48 H          22.8202  -15.5886   24.3944 H       1  UNL1        0.0618
     49 H          12.3607  -13.6325   22.4239 H       1  UNL1        0.0618
     50 H          20.5038  -16.4527   24.1624 H       1  UNL1        0.0620
     51 H          14.2011  -12.9039   20.9321 H       1  UNL1        0.0621
     52 H          10.8208  -11.9584   23.4233 H       1  UNL1        0.0618
@<TRIPOS>BOND
     1     1     2    1
     2     1    14    1
     3     1     3   am
     4     2     5    1
     5     2     7    1
     6     2    27    1
     7     3     8    1
     8     3     4    2
     9     5     6    2
    10     5     9   am
    11     7    10    1
    12     7    28    1
    13     7    29    1
    14     8    11    1
    15     8    12    1
    16     8    30    1
    17     9    13    1
    18     9    31    1
    19    10    14    1
    20    10    32    1
    21    10    33    1
    22    11    34    1
    23    11    35    1
    24    11    36    1
    25    12    15    1
    26    12    37    1
    27    12    38    1
    28    13    16    1
    29    13    39    1
    30    13    40    1
    31    14    41    1
    32    14    42    1
    33    15    17   ar
    34    15    25   ar
    35    16    18   ar
    36    16    26   ar
    37    17    19   ar
    38    17    43    1
    39    18    20   ar
    40    18    44    1
    41    19    21   ar
    42    19    45    1
    43    20    22   ar
    44    20    46    1
    45    21    23   ar
    46    21    47    1
    47    22    24   ar
    48    22    52    1
    49    23    25   ar
    50    23    48    1
    51    24    26   ar
    52    24    49    1
    53    25    50    1
    54    26    51    1
